Version 4
SHEET 1 2404 1432
WIRE 1248 -400 928 -400
WIRE 1632 -400 1248 -400
WIRE 1248 -256 1248 -400
WIRE 1632 -256 1632 -400
WIRE 1584 -240 1472 -240
WIRE 1200 -176 1088 -176
WIRE 1472 -128 1472 -240
WIRE 928 -112 928 -400
WIRE 1088 -112 1088 -176
WIRE 928 48 928 -32
WIRE 1088 48 1088 -32
WIRE 1088 48 928 48
WIRE 1248 48 1248 -160
WIRE 1248 48 1088 48
WIRE 1472 48 1472 -48
WIRE 1472 48 1248 48
WIRE 1632 48 1632 -160
WIRE 1632 48 1472 48
FLAG 1248 48 0
SYMBOL nmos_3021 1200 -256 R0
SYMATTR InstName M1
SYMBOL voltage 1088 -128 R0
SYMATTR InstName V1
SYMATTR Value 0
SYMBOL voltage 928 -128 R0
WINDOW 123 0 0 Left 0
WINDOW 39 0 0 Left 0
SYMATTR InstName V2
SYMATTR Value 12
SYMBOL voltage 1472 -144 R0
WINDOW 123 0 0 Left 0
WINDOW 39 0 0 Left 0
SYMATTR InstName V3
SYMATTR Value 0
SYMBOL Custom\\pmos_3021 1584 -160 M180
SYMATTR InstName U1
TEXT 1312 168 Left 2 !.lib DMC3021LK4.lib
TEXT 894 188 Left 2 !.dc V1 1 2 0.01
