Version 4
SHEET 1 2404 1432
WIRE 288 -464 80 -464
WIRE 512 -464 288 -464
WIRE 1072 -432 1072 -480
WIRE 1344 -432 1344 -480
WIRE 80 -416 80 -464
WIRE 512 -416 512 -464
WIRE 880 -384 880 -432
WIRE 880 -384 768 -384
WIRE 768 -336 768 -384
WIRE 880 -336 880 -384
WIRE 1072 -320 1072 -352
WIRE 1344 -320 1344 -352
WIRE -176 -272 -176 -368
WIRE 1200 -272 1136 -272
WIRE 1280 -272 1200 -272
WIRE 80 -256 80 -336
WIRE 512 -256 512 -336
WIRE 1600 -256 1600 -336
WIRE 208 -208 144 -208
WIRE 448 -208 208 -208
WIRE 768 -208 768 -272
WIRE 880 -208 880 -256
WIRE 880 -208 768 -208
WIRE 1344 -176 1344 -224
WIRE 1408 -176 1344 -176
WIRE 1456 -176 1408 -176
WIRE 1552 -176 1456 -176
WIRE 208 -160 208 -208
WIRE 880 -160 880 -208
WIRE 1072 -160 1072 -224
WIRE 1200 -160 1200 -272
WIRE 1200 -160 1072 -160
WIRE -176 -144 -176 -192
WIRE 80 -112 80 -160
WIRE 144 -112 80 -112
WIRE 1344 -112 1344 -176
WIRE 1344 -112 1200 -112
WIRE -176 -96 -176 -144
WIRE 512 -80 512 -160
WIRE 1600 -80 1600 -160
WIRE 1200 -64 1200 -112
WIRE 880 -48 880 -80
WIRE 208 0 208 -64
WIRE 816 0 784 0
WIRE 1344 16 1344 -112
WIRE 1456 16 1456 -176
WIRE 512 48 512 -80
WIRE 720 48 512 48
WIRE 80 64 80 -112
WIRE 224 64 80 64
WIRE 512 64 512 48
WIRE 512 64 288 64
WIRE 1200 64 1200 16
WIRE 1280 64 1200 64
WIRE -176 80 -176 -16
WIRE 384 80 384 0
WIRE 1600 80 1600 0
WIRE 1680 80 1600 80
WIRE 1728 80 1680 80
WIRE 1760 80 1728 80
WIRE 1872 80 1840 80
WIRE 1200 128 1200 64
WIRE 1600 128 1600 80
WIRE 784 144 784 96
WIRE 80 160 80 64
WIRE 512 160 512 64
WIRE 208 208 144 208
WIRE 288 208 208 208
WIRE 384 208 384 160
WIRE 384 208 288 208
WIRE 448 208 384 208
WIRE 1072 224 1072 -160
WIRE 208 240 208 208
WIRE 288 240 288 208
WIRE 1200 256 1200 208
WIRE 1344 256 1344 112
WIRE 1344 256 1200 256
WIRE 1600 288 1600 208
WIRE 1344 304 1344 256
WIRE 1392 304 1344 304
WIRE 1456 304 1456 80
WIRE 1456 304 1392 304
WIRE 1552 304 1456 304
WIRE 80 320 80 256
WIRE 208 320 208 304
WIRE 512 320 512 256
WIRE 1344 352 1344 304
WIRE -192 368 -304 368
WIRE -80 368 -112 368
WIRE -48 368 -80 368
WIRE 16 368 -48 368
WIRE 608 368 576 368
WIRE 880 400 880 48
WIRE 928 400 880 400
WIRE 1280 400 928 400
WIRE 608 416 608 368
WIRE 880 432 880 400
WIRE 1600 448 1600 384
WIRE -48 480 -48 368
WIRE 80 480 80 416
WIRE 144 480 80 480
WIRE 288 480 224 480
WIRE 368 480 288 480
WIRE 512 480 512 416
WIRE 512 480 448 480
WIRE 1344 528 1344 448
WIRE 608 560 608 496
WIRE 880 592 880 512
WIRE -304 656 -304 368
WIRE -48 656 -48 560
WIRE -48 656 -304 656
WIRE 48 656 -48 656
WIRE 144 656 48 656
WIRE 608 656 608 640
WIRE 608 656 144 656
WIRE 1072 656 1072 304
WIRE 1072 656 944 656
WIRE 48 704 48 656
WIRE 288 704 288 480
WIRE 1072 704 1072 656
WIRE 944 752 944 656
WIRE 944 752 352 752
WIRE 1008 752 944 752
WIRE 288 864 288 800
WIRE 1072 864 1072 800
WIRE 288 992 288 944
WIRE 1072 992 1072 944
FLAG 288 -464 VCC
FLAG -176 -368 VCC
FLAG -176 80 VEE
FLAG -176 -144 0
FLAG 288 992 VEE
FLAG 288 320 0
FLAG 208 208 VBB
FLAG 512 -80 Vo1
FLAG 1872 80 0
FLAG 1600 -336 VCC
FLAG 1600 448 VEE
FLAG 1344 -480 VCC
FLAG 1344 528 VEE
FLAG 1408 -176 GA_N
FLAG 1392 304 GA_P
FLAG 880 -432 VCC
FLAG 880 592 VEE
FLAG 928 400 Vo2
FLAG 608 368 Vp
FLAG 1680 80 Vout
FLAG -80 368 Vm
FLAG 1072 992 VEE
FLAG 1072 -480 VCC
FLAG 208 0 0
FLAG 784 144 0
FLAG 384 0 VCC
FLAG 208 320 0
FLAG 1728 144 0
FLAG 144 656 Vc
FLAG 48 704 0
SYMBOL npn 16 320 R0
SYMATTR InstName Q1a
SYMATTR Value 2N3904
SYMBOL npn 576 320 M0
SYMATTR InstName Q1b
SYMATTR Value 2N3904
SYMBOL npn 448 160 R0
SYMATTR InstName Q2b
SYMATTR Value 2N3904
SYMBOL npn 144 160 M0
SYMATTR InstName Q2a
SYMATTR Value 2N3904
SYMBOL pnp 144 -160 R180
SYMATTR InstName Q3a
SYMATTR Value 2N3906
SYMBOL pnp 144 -64 M180
SYMATTR InstName Q4
SYMATTR Value 2N3906
SYMBOL pnp 448 -160 M180
SYMATTR InstName Q3b
SYMATTR Value 2N3906
SYMBOL res 64 -432 R0
SYMATTR InstName Rz1a
SYMATTR Value 250
SYMBOL res 496 -432 R0
SYMATTR InstName Rz1b
SYMATTR Value 250
SYMBOL voltage 608 544 R0
WINDOW 123 -118 56 Left 2
WINDOW 39 0 0 Left 0
WINDOW 3 -242 24 Left 2
SYMATTR Value2 AC 1 0
SYMATTR Value SINE(0 1m 10k 0 0 0)
SYMATTR InstName Vin
SYMBOL voltage -176 -288 R0
WINDOW 123 0 0 Left 0
WINDOW 39 0 0 Left 0
SYMATTR InstName Vpola
SYMATTR Value 15
SYMBOL voltage -176 -112 R0
WINDOW 123 0 0 Left 0
WINDOW 39 0 0 Left 0
SYMATTR InstName Vpolb
SYMATTR Value 15
SYMBOL pnp 816 48 M180
SYMATTR InstName Q5b
SYMATTR Value 2N3906
SYMBOL res 1584 -96 R0
SYMATTR InstName Rta
SYMATTR Value 0
SYMBOL res 1584 112 R0
SYMATTR InstName Rtb
SYMATTR Value 0
SYMBOL res 1856 64 R90
WINDOW 0 0 56 VBottom 2
WINDOW 3 32 56 VTop 2
SYMATTR InstName RL
SYMATTR Value 10
SYMBOL npn 1280 16 R0
SYMATTR InstName Q9
SYMATTR Value 2N3904
SYMBOL res 1184 -80 R0
SYMATTR InstName RpV1
SYMATTR Value 1150
SYMBOL res 1184 112 R0
SYMATTR InstName RpV2
SYMATTR Value 280
SYMBOL pnp 1280 448 M180
SYMATTR InstName Q8
SYMATTR Value 2N3906
SYMBOL cap 1440 16 R0
SYMATTR InstName CBV
SYMATTR Value 2µ
SYMBOL pnp 720 96 M180
WINDOW 0 -40 23 Left 2
WINDOW 3 -42 -8 Left 2
SYMATTR InstName Q5a
SYMATTR Value 2N3906
SYMBOL res 864 416 R0
SYMATTR InstName Rc2
SYMATTR Value 2310
SYMBOL cap 752 -336 R0
SYMATTR InstName CBE
SYMATTR Value 10µ
SYMBOL res -96 352 R90
WINDOW 0 0 56 VBottom 2
WINDOW 3 32 56 VTop 2
SYMATTR InstName Rf
SYMATTR Value 10k
SYMBOL res -32 576 R180
WINDOW 0 36 76 Left 2
WINDOW 3 36 40 Left 2
SYMATTR InstName Rm
SYMATTR Value 1.1k
SYMBOL res 592 400 R0
SYMATTR InstName Rs
SYMATTR Value 990
SYMBOL res 864 -352 R0
SYMATTR InstName Rd2a
SYMATTR Value 80
SYMBOL res 272 848 R0
SYMATTR InstName RzE1
SYMATTR Value 100
SYMBOL npn 352 704 M0
SYMATTR InstName Q6a
SYMATTR Value 2N3904
SYMBOL npn 1008 704 R0
SYMATTR InstName Q6b
SYMATTR Value 2N3904
SYMBOL res 1056 848 R0
SYMATTR InstName RzE2
SYMATTR Value 100
SYMBOL res 1056 208 R0
SYMATTR InstName Rpol
SYMATTR Value 2600
SYMBOL res 1328 -448 R0
SYMATTR InstName RzC2
SYMATTR Value 10
SYMBOL res 1056 -448 R0
SYMATTR InstName RzC1
SYMATTR Value 10
SYMBOL pnp 1136 -224 R180
WINDOW 0 78 4 Left 2
WINDOW 3 45 47 Left 2
SYMATTR InstName Q7a
SYMATTR Value 2N3906
SYMBOL pnp 1280 -224 M180
SYMATTR InstName Q7b
SYMATTR Value 2N3906
SYMBOL res 272 224 R0
SYMATTR InstName RpBb
SYMATTR Value 1k
SYMBOL res 368 64 R0
SYMATTR InstName RpBa
SYMATTR Value 3.3k
SYMBOL cap 192 240 R0
WINDOW 0 -40 4 Left 2
WINDOW 3 -40 54 Left 2
SYMATTR InstName CBB
SYMATTR Value 1µ
SYMBOL res 464 464 R90
WINDOW 0 0 56 VBottom 2
WINDOW 3 32 56 VTop 2
SYMATTR InstName Rd1b
SYMATTR Value 2700
SYMBOL res 240 464 R90
WINDOW 0 0 56 VBottom 2
WINDOW 3 32 56 VTop 2
SYMATTR InstName Rd1a
SYMATTR Value 2700
SYMBOL res 864 -176 R0
WINDOW 0 -72 29 Left 2
WINDOW 3 -40 52 Left 2
SYMATTR InstName Rd2b
SYMATTR Value 250
SYMBOL cap 288 48 R90
WINDOW 0 0 32 VBottom 2
WINDOW 3 32 32 VTop 2
SYMATTR InstName CC
SYMATTR Value 215p
SYMBOL cap 1712 80 R0
WINDOW 0 -35 22 Left 2
WINDOW 3 -32 43 Left 2
SYMATTR InstName CL
SYMATTR Value 1µ
SYMBOL nmos_3021 1552 -256 R0
SYMATTR InstName M1
SYMBOL pmos_3021 1552 384 M180
SYMATTR InstName M2
TEXT 1312 728 Left 2 !.op
TEXT 1304 776 Left 2 !.ac dec 101 1 100meg
TEXT 1304 696 Left 2 !;tran .001
TEXT 1576 608 Left 2 !.lib DMC3021LK4.lib
