Version 4
SHEET 1 2404 1432
WIRE 768 -352 464 -352
WIRE 992 -352 768 -352
WIRE 1136 -352 992 -352
WIRE 1136 -320 1136 -352
WIRE 768 -256 768 -352
WIRE 992 -240 992 -352
WIRE 704 -208 640 -208
WIRE 1136 -192 1136 -240
WIRE 1136 -192 1056 -192
WIRE 464 -144 464 -352
WIRE 640 -144 640 -208
WIRE 464 0 464 -64
WIRE 560 0 464 0
WIRE 640 0 640 -64
WIRE 640 0 560 0
WIRE 768 0 768 -160
WIRE 768 0 640 0
WIRE 992 0 992 -144
WIRE 992 0 768 0
WIRE 560 16 560 0
FLAG 560 16 0
SYMBOL /npn 704 -256 R0
SYMATTR InstName Q1
SYMATTR Value 2N3904
SYMBOL /voltage 464 -160 R0
SYMATTR InstName V1
SYMATTR Value 0.7V
SYMBOL pnp 1056 -144 R180
SYMATTR InstName Q2
SYMATTR Value 2N3906
SYMBOL voltage 640 -160 R0
WINDOW 123 0 0 Left 0
WINDOW 39 0 0 Left 0
SYMATTR InstName V2
SYMATTR Value 0.7
SYMBOL voltage 1136 -336 R0
WINDOW 123 0 0 Left 0
WINDOW 39 0 0 Left 0
SYMATTR InstName V3
SYMATTR Value 0.7
TEXT 576 96 Left 2 !.dc V1 0 2 0.01
