Version 4
SHEET 1 2404 1432
WIRE 1232 -352 1232 -400
WIRE 1488 -256 1488 -336
WIRE 1232 -176 1232 -272
WIRE 1296 -176 1232 -176
WIRE 1344 -176 1296 -176
WIRE 1440 -176 1344 -176
WIRE 1488 -128 1488 -160
WIRE 1488 -80 1488 -128
WIRE 1232 16 1232 -176
WIRE 1344 16 1344 -176
WIRE 1488 80 1488 0
WIRE 1568 80 1488 80
WIRE 1616 80 1568 80
WIRE 1648 80 1616 80
WIRE 1760 80 1728 80
WIRE 1488 128 1488 80
WIRE 1488 240 1488 208
WIRE 1488 288 1488 240
WIRE 1232 304 1232 96
WIRE 1280 304 1232 304
WIRE 1344 304 1344 80
WIRE 1344 304 1280 304
WIRE 1440 304 1344 304
WIRE 1232 352 1232 304
WIRE 960 400 800 400
WIRE 1008 400 960 400
WIRE 1168 400 1008 400
WIRE 800 432 800 400
WIRE 960 432 960 400
WIRE 1488 448 1488 384
WIRE 1232 528 1232 448
FLAG 1760 80 0
FLAG 1488 -336 VCC
FLAG 1488 448 VEE
FLAG 1232 -400 VCC
FLAG 1232 528 VEE
FLAG 1296 -176 GA_N
FLAG 1280 304 GA_P
FLAG 1568 80 Vout
FLAG 1488 -128 TP_N
FLAG 1488 240 TP_P
FLAG 1616 144 0
FLAG 1008 400 Vo2
FLAG 960 512 0
FLAG 800 512 0
SYMBOL res 1472 -96 R0
SYMATTR InstName Rta
SYMATTR Value .05
SYMBOL res 1472 112 R0
SYMATTR InstName Rtb
SYMATTR Value .05
SYMBOL res 1744 64 R90
WINDOW 0 0 56 VBottom 2
WINDOW 3 32 56 VTop 2
SYMATTR InstName RL
SYMATTR Value 10
SYMBOL pnp 1168 448 M180
SYMATTR InstName Q8
SYMATTR Value 2N3906
SYMBOL cap 1328 16 R0
SYMATTR InstName CBV
SYMATTR Value 1f
SYMBOL cap 1600 80 R0
WINDOW 0 -35 22 Left 2
WINDOW 3 -32 43 Left 2
SYMATTR InstName CL
SYMATTR Value 1f
SYMBOL nmos_3021 1440 -256 R0
SYMATTR InstName M1
SYMBOL pmos_3021 1440 384 M180
SYMATTR InstName M2
SYMBOL voltage 1232 0 R0
WINDOW 123 0 0 Left 0
WINDOW 39 0 0 Left 0
SYMATTR InstName Vtt
SYMATTR Value 1V
SYMBOL current 1232 -352 R0
SYMATTR InstName I2
SYMBOL voltage 960 416 R0
SYMATTR InstName Vac1
SYMBOL voltage 800 416 R0
SYMATTR InstName VDC1
TEXT 1200 728 Left 2 !.op
TEXT 1192 776 Left 2 !;.ac dec 101 1 10meg
TEXT 1192 696 Left 2 !.tran .01
TEXT 1464 608 Left 2 !.lib DMC3021LK4.lib
